66

O          1.80625       -3.66449      -14.41960
O         -1.04405       -3.14986      -13.27001
C          2.37346       -2.22374      -16.88068
H          3.22679       -2.02540      -17.34262
H          2.29913       -3.20640      -16.78901
C          2.39770       -1.59545      -15.50097
C          2.67428       -0.23364      -15.40013
H          2.93263        0.25269      -16.17340
C          2.57553        0.41675      -14.18093
H          2.81301        1.33437      -14.11671
C          2.13985       -0.25363      -13.06515
H          2.03911        0.21601      -12.24588
C          1.83705       -1.63018      -13.12104
C          1.24251       -2.28689      -11.89130
H          1.18951       -3.26458      -12.03746
H          1.83775       -2.12677      -11.11650
C         -0.13173       -1.75753      -11.57824
C         -0.34952       -0.72932      -10.65459
H          0.38185       -0.39392      -10.14927
C         -1.61258       -0.19364      -10.46366
H         -1.74387        0.50586       -9.83425
C         -2.67659       -0.68091      -11.19160
H         -3.53733       -0.30014      -11.06160
C         -2.52481       -1.71543      -12.11386
C         -1.23420       -2.24374      -12.33304
C          2.03592       -2.27531      -14.33288
O         -3.10420       -3.66449      -15.41406
O         -0.25391       -3.14986      -16.56365
C         -3.67141       -2.22374      -12.95298
H         -4.52474       -2.02540      -12.49103
H         -3.59708       -3.20640      -13.04465
C         -3.69565       -1.59545      -14.33269
C         -3.97224       -0.23364      -14.43352
H         -4.23059        0.25269      -13.66025
C         -3.87349        0.41675      -15.65273
H         -4.11097        1.33437      -15.71695
C         -3.43780       -0.25363      -16.76850
H         -3.33707        0.21601      -17.58778
C         -3.13501       -1.63018      -16.71262
C         -2.54046       -2.28689      -17.94236
H         -2.48746       -3.26458      -17.79619
H         -3.13570       -2.12677      -18.71716
C         -1.16623       -1.75753      -18.25541
C         -0.94843       -0.72932      -19.17906
H         -1.67980       -0.39392      -19.68438
C          0.31463       -0.19364      -19.37000
H          0.44592        0.50586      -19.99941
C          1.37864       -0.68091      -18.64206
H          2.23937       -0.30014      -18.77205
C          1.22686       -1.71543      -17.71980
C         -0.06375       -2.24374      -17.50062
C         -3.33388       -2.27531      -15.50077
N         -0.64898       -0.51989      -14.91683
H         -0.85256       -0.95978      -14.18242
N         -0.34554        1.45548      -16.00973
H         -0.34659        2.33566      -16.00713
H         -0.14202        1.01790      -16.74529
C         -0.64898        0.79667      -14.91683
H         -0.44539       -0.95978      -15.65123
N         -0.95241        1.45548      -13.82392
H         -0.95136        2.33566      -13.82653
H         -1.15594        1.01790      -13.08836
H          1.93721       -4.11114      -15.23282
H         -1.77120       -3.46970      -13.76692
H         -2.86052       -4.14771      -16.17897
H         -1.11050       -3.50062      -16.41805
