23
Step displaced_structure_39
N -2.515509 0.840708 1.177063
H -1.567518 0.577511 0.916832
C -2.583478 2.227657 1.678233
H -2.810312 0.175218 1.886406
H -3.099799 0.677736 0.360388
C -1.695913 2.354524 2.905091
H -3.627434 2.451381 1.908167
H -2.262316 2.894267 0.874908
H -2.024772 1.686600 3.705653
H -0.652193 2.133599 2.666597
H -1.737060 3.373539 3.289210
H -1.728835 4.714911 6.129593
C -1.886487 5.072507 5.117856
C -3.182142 5.176485 4.608449
H -4.030906 4.900885 5.224747
C -3.383029 5.598933 3.293293
H -4.387572 5.650796 2.888194
C -2.288493 5.921174 2.489343
H -2.442977 6.225425 1.460224
C -0.992968 5.814926 2.998100
H -0.142170 6.036048 2.363450
C -0.791849 5.388587 4.311667
H 0.215337 5.277617 4.697817
