23
Step displaced_structure_45
N -2.515509 0.840708 1.177063
H -1.567518 0.577511 0.916832
C -2.583478 2.227657 1.678233
H -2.810312 0.175218 1.886406
H -3.099799 0.677736 0.360388
C -1.695913 2.354524 2.905091
H -3.627434 2.451381 1.908167
H -2.262316 2.894267 0.874908
H -2.024772 1.686600 3.705653
H -0.652193 2.133599 2.666597
H -1.737060 3.373539 3.289210
H -1.686310 5.787931 6.665149
C -1.843963 6.145527 5.653411
C -3.139617 6.249505 5.144005
H -3.988381 5.973905 5.760302
C -3.340504 6.671953 3.828849
H -4.345047 6.723816 3.423750
C -2.245968 6.994194 3.024898
H -2.400453 7.298445 1.995779
C -0.950443 6.887946 3.533655
H -0.099645 7.109068 2.899006
C -0.749325 6.461607 4.847222
H 0.257862 6.350637 5.233373
