23
Step displaced_structure_29
N -2.515509 0.840708 1.177063
H -1.567518 0.577511 0.916832
C -2.583478 2.227657 1.678233
H -2.810312 0.175218 1.886406
H -3.099799 0.677736 0.360388
C -1.695913 2.354524 2.905091
H -3.627434 2.451381 1.908167
H -2.262316 2.894267 0.874908
H -2.024772 1.686600 3.705653
H -0.652193 2.133599 2.666597
H -1.737060 3.373539 3.289210
H -1.799709 2.926544 5.237001
C -1.957362 3.284140 4.225264
C -3.253016 3.388118 3.715857
H -4.101780 3.112519 4.332155
C -3.453903 3.810566 2.400701
H -4.458446 3.862429 1.995602
C -2.359367 4.132807 1.596750
H -2.513851 4.437058 0.567631
C -1.063842 4.026559 2.105507
H -0.213044 4.247681 1.470858
C -0.862723 3.600221 3.419075
H 0.144463 3.489250 3.805225
