23
Step displaced_structure_37
N -2.515509 0.840708 1.177063
H -1.567518 0.577511 0.916832
C -2.583478 2.227657 1.678233
H -2.810312 0.175218 1.886406
H -3.099799 0.677736 0.360388
C -1.695913 2.354524 2.905091
H -3.627434 2.451381 1.908167
H -2.262316 2.894267 0.874908
H -2.024772 1.686600 3.705653
H -0.652193 2.133599 2.666597
H -1.737060 3.373539 3.289210
H -1.743010 4.357238 5.951075
C -1.900662 4.714834 4.939337
C -3.196316 4.818812 4.429931
H -4.045080 4.543212 5.046229
C -3.397203 5.241260 3.114775
H -4.401747 5.293122 2.709676
C -2.302668 5.563501 2.310824
H -2.457152 5.867752 1.281705
C -1.007142 5.457253 2.819581
H -0.156345 5.678375 2.184932
C -0.806024 5.030914 4.133148
H 0.201162 4.919944 4.519299
