23
Step displaced_structure_42
N -2.515509 0.840708 1.177063
H -1.567518 0.577511 0.916832
C -2.583478 2.227657 1.678233
H -2.810312 0.175218 1.886406
H -3.099799 0.677736 0.360388
C -1.695913 2.354524 2.905091
H -3.627434 2.451381 1.908167
H -2.262316 2.894267 0.874908
H -2.024772 1.686600 3.705653
H -0.652193 2.133599 2.666597
H -1.737060 3.373539 3.289210
H -1.707572 5.251421 6.397371
C -1.865225 5.609017 5.385634
C -3.160879 5.712995 4.876227
H -4.009643 5.437395 5.492525
C -3.361766 6.135443 3.561071
H -4.366309 6.187306 3.155972
C -2.267230 6.457684 2.757120
H -2.421715 6.761935 1.728001
C -0.971705 6.351436 3.265878
H -0.120908 6.572558 2.631228
C -0.770587 5.925097 4.579445
H 0.236599 5.814127 4.965595
