23
Step displaced_structure_4
N -2.515509 0.840708 1.177063
H -1.567518 0.577511 0.916832
C -2.583478 2.227657 1.678233
H -2.810312 0.175218 1.886406
H -3.099799 0.677736 0.360388
C -1.695913 2.354524 2.905091
H -3.627434 2.451381 1.908167
H -2.262316 2.894267 0.874908
H -2.024772 1.686600 3.705653
H -0.652193 2.133599 2.666597
H -1.737060 3.373539 3.289210
H -1.976895 -1.544372 3.005520
C -2.134547 -1.186777 1.993783
C -3.430202 -1.082799 1.484376
H -4.278966 -1.358398 2.100674
C -3.631089 -0.660351 0.169220
H -4.635632 -0.608488 -0.235879
C -2.536553 -0.338110 -0.634730
H -2.691037 -0.033859 -1.663849
C -1.241028 -0.444358 -0.125973
H -0.390230 -0.223235 -0.760623
C -1.039909 -0.870696 1.187594
H -0.032723 -0.981667 1.573744
