23
Step displaced_structure_6
N -2.515509 0.840708 1.177063
H -1.567518 0.577511 0.916832
C -2.583478 2.227657 1.678233
H -2.810312 0.175218 1.886406
H -3.099799 0.677736 0.360388
C -1.695913 2.354524 2.905091
H -3.627434 2.451381 1.908167
H -2.262316 2.894267 0.874908
H -2.024772 1.686600 3.705653
H -0.652193 2.133599 2.666597
H -1.737060 3.373539 3.289210
H -1.962720 -1.186699 3.184038
C -2.120372 -0.829103 2.172301
C -3.416027 -0.725125 1.662895
H -4.264791 -1.000725 2.279192
C -3.616914 -0.302677 0.347738
H -4.621457 -0.250815 -0.057361
C -2.522378 0.019564 -0.456212
H -2.676862 0.323815 -1.485331
C -1.226853 -0.086684 0.052545
H -0.376055 0.134438 -0.582104
C -1.025734 -0.513023 1.366112
H -0.018548 -0.623993 1.752262
