23
Step displaced_structure_47
N -2.515509 0.840708 1.177063
H -1.567518 0.577511 0.916832
C -2.583478 2.227657 1.678233
H -2.810312 0.175218 1.886406
H -3.099799 0.677736 0.360388
C -1.695913 2.354524 2.905091
H -3.627434 2.451381 1.908167
H -2.262316 2.894267 0.874908
H -2.024772 1.686600 3.705653
H -0.652193 2.133599 2.666597
H -1.737060 3.373539 3.289210
H -1.672135 6.145605 6.843667
C -1.829788 6.503200 5.831930
C -3.125442 6.607178 5.322523
H -3.974206 6.331579 5.938821
C -3.326329 7.029627 4.007367
H -4.330872 7.081489 3.602268
C -2.231793 7.351867 3.203417
H -2.386278 7.656118 2.174298
C -0.936268 7.245619 3.712174
H -0.085470 7.466742 3.077524
C -0.735150 6.819281 5.025741
H 0.272036 6.708310 5.411891
