23
Step displaced_structure_23
N -2.515509 0.840708 1.177063
H -1.567518 0.577511 0.916832
C -2.583478 2.227657 1.678233
H -2.810312 0.175218 1.886406
H -3.099799 0.677736 0.360388
C -1.695913 2.354524 2.905091
H -3.627434 2.451381 1.908167
H -2.262316 2.894267 0.874908
H -2.024772 1.686600 3.705653
H -0.652193 2.133599 2.666597
H -1.737060 3.373539 3.289210
H -1.842234 1.853524 4.701445
C -1.999886 2.211120 3.689708
C -3.295540 2.315098 3.180302
H -4.144304 2.039499 3.796599
C -3.496427 2.737546 1.865145
H -4.500971 2.789409 1.460046
C -2.401892 3.059787 1.061195
H -2.556376 3.364038 0.032076
C -1.106366 2.953539 1.569952
H -0.255569 3.174661 0.935303
C -0.905248 2.527201 2.883519
H 0.101938 2.416230 3.269669
