23
Step displaced_structure_13
N -2.515509 0.840708 1.177063
H -1.567518 0.577511 0.916832
C -2.583478 2.227657 1.678233
H -2.810312 0.175218 1.886406
H -3.099799 0.677736 0.360388
C -1.695913 2.354524 2.905091
H -3.627434 2.451381 1.908167
H -2.262316 2.894267 0.874908
H -2.024772 1.686600 3.705653
H -0.652193 2.133599 2.666597
H -1.737060 3.373539 3.289210
H -1.913108 0.065158 3.808853
C -2.070760 0.422753 2.797116
C -3.366415 0.526731 2.287709
H -4.215179 0.251132 2.904007
C -3.567302 0.949180 0.972553
H -4.571845 1.001042 0.567454
C -2.472766 1.271420 0.168603
H -2.627250 1.575671 -0.860516
C -1.177241 1.165172 0.677360
H -0.326443 1.386295 0.042710
C -0.976122 0.738834 1.990927
H 0.031064 0.627863 2.377077
