23
Step displaced_structure_25
N -2.515509 0.840708 1.177063
H -1.567518 0.577511 0.916832
C -2.583478 2.227657 1.678233
H -2.810312 0.175218 1.886406
H -3.099799 0.677736 0.360388
C -1.695913 2.354524 2.905091
H -3.627434 2.451381 1.908167
H -2.262316 2.894267 0.874908
H -2.024772 1.686600 3.705653
H -0.652193 2.133599 2.666597
H -1.737060 3.373539 3.289210
H -1.828059 2.211198 4.879964
C -1.985711 2.568794 3.868227
C -3.281366 2.672771 3.358820
H -4.130130 2.397172 3.975118
C -3.482253 3.095220 2.043664
H -4.486796 3.147082 1.638565
C -2.387717 3.417460 1.239713
H -2.542201 3.721711 0.210594
C -1.092192 3.311212 1.748471
H -0.241394 3.532335 1.113821
C -0.891073 2.884874 3.062038
H 0.116113 2.773903 3.448188
