23
Step displaced_structure_32
N -2.515509 0.840708 1.177063
H -1.567518 0.577511 0.916832
C -2.583478 2.227657 1.678233
H -2.810312 0.175218 1.886406
H -3.099799 0.677736 0.360388
C -1.695913 2.354524 2.905091
H -3.627434 2.451381 1.908167
H -2.262316 2.894267 0.874908
H -2.024772 1.686600 3.705653
H -0.652193 2.133599 2.666597
H -1.737060 3.373539 3.289210
H -1.778447 3.463054 5.504778
C -1.936099 3.820650 4.493041
C -3.231754 3.924628 3.983635
H -4.080518 3.649029 4.599932
C -3.432641 4.347076 2.668479
H -4.437184 4.398939 2.263379
C -2.338105 4.669317 1.864528
H -2.492589 4.973568 0.835409
C -1.042580 4.563069 2.373285
H -0.191782 4.784192 1.738636
C -0.841461 4.136731 3.686852
H 0.165725 4.025760 4.073002
