23
Step displaced_structure_49
N -2.515509 0.840708 1.177063
H -1.567518 0.577511 0.916832
C -2.583478 2.227657 1.678233
H -2.810312 0.175218 1.886406
H -3.099799 0.677736 0.360388
C -1.695913 2.354524 2.905091
H -3.627434 2.451381 1.908167
H -2.262316 2.894267 0.874908
H -2.024772 1.686600 3.705653
H -0.652193 2.133599 2.666597
H -1.737060 3.373539 3.289210
H -1.657960 6.503278 7.022185
C -1.815613 6.860874 6.010448
C -3.111267 6.964852 5.501042
H -3.960031 6.689252 6.117339
C -3.312154 7.387300 4.185886
H -4.316697 7.439162 3.780786
C -2.217618 7.709541 3.381935
H -2.372103 8.013792 2.352816
C -0.922093 7.603293 3.890692
H -0.071296 7.824415 3.256043
C -0.720975 7.176954 5.204259
H 0.286211 7.065984 5.590409
