23
Step displaced_structure_10
N -2.515509 0.840708 1.177063
H -1.567518 0.577511 0.916832
C -2.583478 2.227657 1.678233
H -2.810312 0.175218 1.886406
H -3.099799 0.677736 0.360388
C -1.695913 2.354524 2.905091
H -3.627434 2.451381 1.908167
H -2.262316 2.894267 0.874908
H -2.024772 1.686600 3.705653
H -0.652193 2.133599 2.666597
H -1.737060 3.373539 3.289210
H -1.934370 -0.471352 3.541075
C -2.092023 -0.113757 2.529338
C -3.387677 -0.009779 2.019932
H -4.236441 -0.285378 2.636229
C -3.588564 0.412670 0.704775
H -4.593107 0.464532 0.299676
C -2.494028 0.734910 -0.099175
H -2.648513 1.039161 -1.128294
C -1.198503 0.628662 0.409582
H -0.347705 0.849785 -0.225067
C -0.997385 0.202324 1.723149
H 0.009802 0.091353 2.109299
